metodo: MT3D
freq: 0.01,1000,2
dxdydz:50,50,50
X:5000
Y:5000
Z:16000
layer: 1000,3000
cond: 1e-6,1,10e-3
box: -100,200,-400,1000,-2000,300, 2e-12
box: 1000,1000,-400,1000,-3500,400, 2e-12
#exemplo0
